Circuit: * D:\Desktop\EEEE NOTES\IA1\Draft1.asc

WARNING: Less than two connections to node b.  This node is used by v2.
Direct Newton iteration for .op point succeeded.

Date: Thu Nov 30 21:24:44 2023
Total elapsed time: 0.051 seconds.

tnom = 27
temp = 27
method = trap
totiter = 3
traniter = 0
tranpoints = 0
accept = 0
rejected = 0
matrix size = 6
fillins = 0
solver = Normal
Avg thread counts: 12.0/0.0/12.0/12.0
Matrix Compiler1: 164 bytes object code size
Matrix Compiler2: 320 bytes object code size
