Circuit: * D:\Desktop\EEEE NOTES\IA1\Rth.asc

Direct Newton iteration for .op point succeeded.

Date: Thu Nov 30 21:22:59 2023
Total elapsed time: 0.062 seconds.

tnom = 27
temp = 27
method = trap
totiter = 3
traniter = 0
tranpoints = 0
accept = 0
rejected = 0
matrix size = 3
fillins = 0
solver = Normal
Avg thread counts: 12.0/0.0/12.0/12.0
Matrix Compiler1: 68 bytes object code size
Matrix Compiler2: 175 bytes object code size
